%Mem=4GB
%NProcShared=8
%Chk=lig
# B3LYP/6-31G* SCF=XQC opt(MaxCycles=350 , tight) 

UNK_CS

0 1
C  0.9984448260  0.9990451117 -0.0009839077
S -0.8135782659  0.9964090578 -0.0022387622
H  1.3809420263  1.0020412425 -1.0219142099
H  1.3811840789  0.1163895066  0.5118902116
H  1.3737614924  1.8855934702  0.5108282586
H -0.9677541578 -0.1534783887 -0.6665815903


