%Mem=4GB
%NProcShared=8
%Chk=lig
# B3LYP/6-31G* SCF=XQC SCRF=(IPCM,Read) density=current OUTPUT=WFX 

UNK_CS

0 1
C -1.1646462413  0.0195175358  0.0000000000
S  0.6675669107 -0.0871445844  0.0000000000
H -1.5354245155  0.5226581761 -0.8954586453
H -1.5354246001  0.5226546339  0.8954605921
H -1.5302730976 -1.0096119415 -0.0000019729
H  0.9079290956  1.2415072646  0.0000001233

4.0 0.0004
UNK_CS.wfx

